Using SPARSE 1.3 as Direct Linear Solver

Note: No compatibility mode selected!


Circuit: * test circuit 8: behavioral source - chirp signal

binary raw file "/home/jnd/qt_projects/fluxscript/tests/integration/results/Chirp_Signal.raw"
Doing analysis at TEMP = 27.000000 and TNOM = 27.000000

No. of Data Columns : 5  

Initial Transient Solution
--------------------------

Node                                   Voltage
----                                   -------
in                                           0
out                                          0
b1#branch                                    0
vin#branch                                   0


No. of Data Rows : 10008

Total analysis time (seconds) = 0.033

Total elapsed time (seconds) = 0.049 

Total DRAM available = 32121.469 MB.
DRAM currently available = 9477.309 MB.
Maximum ngspice program size =   21.352 MB.
Current ngspice program size =   12.797 MB.

Shared ngspice pages =   10.824 MB.
Text (code) pages =    6.156 MB.
Stack = 0 bytes.
Library pages =    2.109 MB.

