Using SPARSE 1.3 as Direct Linear Solver

Note: No compatibility mode selected!


Circuit: * test circuit 5: common emitter amplifier

binary raw file "/home/jnd/qt_projects/fluxscript/tests/integration/results/Common_Emitter_Amplifier.raw"
Doing analysis at TEMP = 27.000000 and TNOM = 27.000000

No. of Data Columns : 8  

Initial Transient Solution
--------------------------

Node                                   Voltage
----                                   -------
vcc                                         12
in                                           0
base                                   1.80999
out                                    6.64164
emit                                   1.15148
vin#branch                                   0
vcc#branch                         -0.00124198


No. of Data Rows : 208

Total analysis time (seconds) = 0.001

Total elapsed time (seconds) = 0.025 

Total DRAM available = 32121.469 MB.
DRAM currently available = 9488.562 MB.
Maximum ngspice program size =   21.352 MB.
Current ngspice program size =   13.086 MB.

Shared ngspice pages =   11.113 MB.
Text (code) pages =    6.156 MB.
Stack = 0 bytes.
Library pages =    2.109 MB.

