Using SPARSE 1.3 as Direct Linear Solver

Note: No compatibility mode selected!


Circuit: * test circuit 10: dc sweep - diode iv curve

binary raw file "/home/jnd/qt_projects/fluxscript/tests/integration/results/Diode_IV_Curve.raw"
Doing analysis at TEMP = 27.000000 and TNOM = 27.000000

No. of Data Columns : 4  

No. of Data Rows : 101

Total analysis time (seconds) = 0

Total elapsed time (seconds) = 0.004 

Total DRAM available = 32121.469 MB.
DRAM currently available = 9464.273 MB.
Maximum ngspice program size =   21.355 MB.
Current ngspice program size =   13.168 MB.

Shared ngspice pages =   11.191 MB.
Text (code) pages =    6.156 MB.
Stack = 0 bytes.
Library pages =    2.113 MB.

