Using SPARSE 1.3 as Direct Linear Solver

Note: No compatibility mode selected!


Circuit: * test circuit 7: behavioral source - fm modulation

binary raw file "/home/jnd/qt_projects/fluxscript/tests/integration/results/FM_Modulation.raw"
Doing analysis at TEMP = 27.000000 and TNOM = 27.000000

No. of Data Columns : 5  

Initial Transient Solution
--------------------------

Node                                   Voltage
----                                   -------
in                                           0
out                                          0
b1#branch                                    0
vin#branch                                   0


No. of Data Rows : 20008

Total analysis time (seconds) = 0.116

Total elapsed time (seconds) = 0.134 

Total DRAM available = 32121.469 MB.
DRAM currently available = 9484.820 MB.
Maximum ngspice program size =   21.355 MB.
Current ngspice program size =   12.938 MB.

Shared ngspice pages =   10.961 MB.
Text (code) pages =    6.156 MB.
Stack = 0 bytes.
Library pages =    2.113 MB.

