Using SPARSE 1.3 as Direct Linear Solver

Note: No compatibility mode selected!


Circuit: * test circuit 1: rc low-pass filter

binary raw file "/home/jnd/qt_projects/fluxscript/tests/integration/results/RC_Low-Pass_Filter.raw"
Doing analysis at TEMP = 27.000000 and TNOM = 27.000000

No. of Data Columns : 4  

Initial Transient Solution
--------------------------

Node                                   Voltage
----                                   -------
in                                           0
out                                          0
vin#branch                                   0


No. of Data Rows : 350

Total analysis time (seconds) = 0.003

Total elapsed time (seconds) = 0.023 

Total DRAM available = 32121.469 MB.
DRAM currently available = 9484.406 MB.
Maximum ngspice program size =   21.355 MB.
Current ngspice program size =   13.055 MB.

Shared ngspice pages =   11.082 MB.
Text (code) pages =    6.156 MB.
Stack = 0 bytes.
Library pages =    2.113 MB.

