Using SPARSE 1.3 as Direct Linear Solver

Note: No compatibility mode selected!


Circuit: * test circuit 2: voltage divider

binary raw file "/home/jnd/qt_projects/fluxscript/tests/integration/results/Voltage_Divider.raw"
Doing analysis at TEMP = 27.000000 and TNOM = 27.000000

No. of Data Columns : 3  

No. of Data Rows : 1
No. of Data Columns : 4  

Initial Transient Solution
--------------------------

Node                                   Voltage
----                                   -------
in                                          10
out                                          5
vin#branch                             -0.0005


No. of Data Rows : 1008

Total analysis time (seconds) = 0.003

Total elapsed time (seconds) = 0.012 

Total DRAM available = 32121.469 MB.
DRAM currently available = 9489.598 MB.
Maximum ngspice program size =   21.355 MB.
Current ngspice program size =   12.887 MB.

Shared ngspice pages =   10.914 MB.
Text (code) pages =    6.156 MB.
Stack = 0 bytes.
Library pages =    2.113 MB.

