Using SPARSE 1.3 as Direct Linear Solver

Note: No compatibility mode selected!


Circuit: * test circuit 9: wien bridge oscillator (simplified)

binary raw file "/home/jnd/qt_projects/fluxscript/tests/integration/results/Wien_Bridge_Oscillator.raw"
Doing analysis at TEMP = 27.000000 and TNOM = 27.000000

No. of Data Columns : 9  

Initial Transient Solution
--------------------------

Node                                   Voltage
----                                   -------
vcc                                         12
vee                                        -12
out                                          0
n1                                           0
n2                                           0
b1#branch                                    0
vee#branch                                   0
vcc#branch                                   0


No. of Data Rows : 212

Total analysis time (seconds) = 0.002

Total elapsed time (seconds) = 0.018 

Total DRAM available = 32121.469 MB.
DRAM currently available = 9472.609 MB.
Maximum ngspice program size =   21.355 MB.
Current ngspice program size =   13.129 MB.

Shared ngspice pages =   11.152 MB.
Text (code) pages =    6.156 MB.
Stack = 0 bytes.
Library pages =    2.113 MB.

