
Note: No compatibility mode selected!


Circuit: * viospice automated hierarchical spice netlist

Warning: Model issue on line 15 :
  .model bsc042n03ms nmos(kp=291.5 lambda=0.07 rd=0.00218 rg=1.5 rs=0.0005 ...
unrecognized parameter (rg) - ignored

Using SPARSE 1.3 as Direct Linear Solver
Doing analysis at TEMP = 27.000000 and TNOM = 27.000000


Initial Transient Solution
--------------------------

Node                                   Voltage
----                                   -------
net1                                2.7095e-23
net2                              -6.53912e-21
net3                              -2.38254e-23
l2__rser                          -2.38254e-23
net4                                        12
l3__rser                                    12
net5                                        12
l4__rser                                    12
net6                                        12
g1                                           0
g2                                           0
l1__rser                                     0
l1#branch                            5.419e-22
l4#branch                          1.23919e-11
l3#branch                         -1.22981e-11
l2#branch                          4.76508e-22
v3#branch                                    0
v2#branch                                    0
v1#branch                         -2.46999e-11

 Reference value :  2.48654e-05 Reference value :  2.68843e-04 Reference value :  4.59062e-04 Reference value :  4.84287e-04 Reference value :  5.57877e-04 Reference value :  5.81489e-04 Reference value :  6.07386e-04 Reference value :  6.30645e-04 Reference value :  6.56687e-04 Reference value :  6.82214e-04 Reference value :  7.10255e-04 Reference value :  7.34649e-04 Reference value :  7.60718e-04 Reference value :  7.84119e-04 Reference value :  8.09088e-04 Reference value :  8.31886e-04 Reference value :  8.57037e-04 Reference value :  8.82237e-04 Reference value :  9.09397e-04 Reference value :  9.32460e-04 Reference value :  9.57661e-04 Reference value :  9.80896e-04 Reference value :  1.00635e-03 Reference value :  1.02940e-03 Reference value :  1.05424e-03 Reference value :  1.08033e-03 Reference value :  1.10964e-03 Reference value :  1.13879e-03 Reference value :  1.16522e-03 Reference value :  1.18881e-03 Reference value :  1.21309e-03 Reference value :  1.23661e-03 Reference value :  1.26142e-03 Reference value :  1.28493e-03 Reference value :  1.30986e-03 Reference value :  1.33830e-03 Reference value :  1.36464e-03 Reference value :  1.38818e-03 Reference value :  1.41203e-03 Reference value :  1.43563e-03 Reference value :  1.46054e-03 Reference value :  1.48451e-03 Reference value :  1.50919e-03 Reference value :  1.53125e-03 Reference value :  1.55625e-03 Reference value :  1.58031e-03 Reference value :  1.60428e-03 Reference value :  1.62731e-03 Reference value :  1.65193e-03 Reference value :  1.67725e-03 Reference value :  1.70330e-03 Reference value :  1.72949e-03 Reference value :  1.80358e-03 Reference value :  1.82865e-03 Reference value :  1.85472e-03 Reference value :  1.87787e-03 Reference value :  1.90106e-03 Reference value :  1.92409e-03 Reference value :  1.94736e-03 Reference value :  1.97179e-03 Reference value :  1.99615e-03
Error: measure  vavg  avg(TRIG) : bad syntax. equal sign missing ?
Warning from checkvalid: vector vavg is not available or has zero length.

No. of Data Rows : 1361278
 meas tran vavg avg v(net2) from 0.001 to 0.002 failed!

ngspice-42 done
